[DRAMSim3 Config] devices_per_rank 8 page_size 1024 megs_per_bank 64 megs_per_rank 16384 ranks 1 channel_size 16384 channels 4
Adaptive open page? 0 PSEL_th 511 RBHR_th 0
Impress-D enabled? 0 Impress-P enabled? 0
MOP gang size 8
[BUILT FOR ART_RH]
Block size in DRAMSim3: 64
MOP address mapping enabled: rohirababgchlo
[IMPRESS] tONMAX DISABLED
DRAMSim3_DRAM init -- fixed meta-RQ size
VWQ_ENABLED
RH_THRESHOLD 64
[ChampSim] MOP address mapping enabled

*** ChampSim Multicore Out-of-Order Simulator ***

Warmup Instructions: 10000000
Simulation Instructions: 10000000
Number of CPUs: 8
knob_cs_traces: nnnnnnnn
Off-chip DRAM Size: 64 GiB Channels: 4 Width: 32-bit Data Rate: 4800 MT/s

VirtualMemory physical capacity: 68449988608 num_ppages: 16711423
VirtualMemory page size: 4096 log2_page_size: 12

Assigning traces to CPUs
CPU 0 runs ../../../pythia/traces/607.cactuBS_s-2421B.champsimtrace.xz CS=n
TRACE FILE NOT FOUND
baseline: src/tracereader.cc:43: tracereader::tracereader(uint8_t, std::string): Assertion `0' failed.
